GLC.****
  PyMOL2.4          3D                             0

 24 24  0  0  0  0  0  0  0  0999 V2000
   -0.4608    1.4614   -0.1440 C   0  0  0  1  0  0  0  0  0  0  0  0
   -0.6817    2.3981   -0.6114 H   0  0  0  1  0  0  0  0  0  0  0  0
   -1.6046    0.5118   -0.3844 C   0  0  0  1  0  0  0  0  0  0  0  0
   -1.7672    0.4145   -1.4375 H   0  0  0  1  0  0  0  0  0  0  0  0
   -1.2899   -0.8436    0.1977 C   0  0  0  1  0  0  0  0  0  0  0  0
   -1.3001   -0.7786    1.2657 H   0  0  0  1  0  0  0  0  0  0  0  0
    0.0707   -1.3137   -0.2580 C   0  0  0  1  0  0  0  0  0  0  0  0
    0.0248   -1.5442   -1.3019 H   0  0  0  1  0  0  0  0  0  0  0  0
    1.1405   -0.2587   -0.0353 C   0  0  0  1  0  0  0  0  0  0  0  0
    1.2570   -0.0850    1.0141 H   0  0  0  1  0  0  0  0  0  0  0  0
    2.4497   -0.7391   -0.6153 C   0  0  0  1  0  0  0  0  0  0  0  0
    2.3544   -0.7933   -1.6796 H   0  0  0  1  0  0  0  0  0  0  0  0
    2.6610   -1.7130   -0.2256 H   0  0  0  1  0  0  0  0  0  0  0  0
   -0.3073    1.6529    1.2449 O   0  0  0  1  0  0  0  0  0  0  0  0
   -0.9045    2.3437    1.5410 H   0  0  0  1  0  0  0  0  0  0  0  0
   -2.7837    1.0281    0.2345 O   0  0  0  1  0  0  0  0  0  0  0  0
   -2.9139    0.5996    1.0837 H   0  0  0  1  0  0  0  0  0  0  0  0
   -2.2787   -1.7803   -0.2325 O   0  0  0  1  0  0  0  0  0  0  0  0
   -2.4498   -1.6581   -1.1692 H   0  0  0  1  0  0  0  0  0  0  0  0
    0.4219   -2.4884    0.4747 O   0  0  0  1  0  0  0  0  0  0  0  0
    0.8976   -2.2394    1.2705 H   0  0  0  1  0  0  0  0  0  0  0  0
    0.7530    0.9537   -0.6773 O   0  0  0  1  0  0  0  0  0  0  0  0
    3.5334    0.1242   -0.2978 O   0  0  0  1  0  0  0  0  0  0  0  0
    3.9681    0.4037   -1.1068 H   0  0  0  1  0  0  0  0  0  0  0  0
  1  2  1  0  0  0  0
  1  3  1  0  0  0  0
  1 14  1  0  0  0  0
  1 22  1  0  0  0  0
  3  4  1  0  0  0  0
  3  5  1  0  0  0  0
  3 16  1  0  0  0  0
  5  6  1  0  0  0  0
  5  7  1  0  0  0  0
  5 18  1  0  0  0  0
  7  8  1  0  0  0  0
  7  9  1  0  0  0  0
  7 20  1  0  0  0  0
  9 10  1  0  0  0  0
  9 11  1  0  0  0  0
  9 22  1  0  0  0  0
 11 12  1  0  0  0  0
 11 13  1  0  0  0  0
 11 23  1  0  0  0  0
 14 15  1  0  0  0  0
 16 17  1  0  0  0  0
 18 19  1  0  0  0  0
 20 21  1  0  0  0  0
 23 24  1  0  0  0  0
M  END
> <ConfClashScore>
0 

> <ConfOneFourInteractionScore>
-0.970024 

> <ConfScore>
0.432195 

> <ConfScorePBest>
0.094501 

> <ConfTolerance>
0.25 

$$$$
GLC.****
  PyMOL2.4          3D                             0

 24 24  0  0  0  0  0  0  0  0999 V2000
   -0.4991    1.4792   -0.0969 C   0  0  0  1  0  0  0  0  0  0  0  0
   -0.7332    2.4468   -0.4890 H   0  0  0  1  0  0  0  0  0  0  0  0
   -1.5708    0.4851   -0.5250 C   0  0  0  1  0  0  0  0  0  0  0  0
   -1.6308    0.4567   -1.5929 H   0  0  0  1  0  0  0  0  0  0  0  0
   -1.1895   -0.8996    0.0080 C   0  0  0  1  0  0  0  0  0  0  0  0
   -1.2782   -0.8936    1.0743 H   0  0  0  1  0  0  0  0  0  0  0  0
    0.2310   -1.2914   -0.3608 C   0  0  0  1  0  0  0  0  0  0  0  0
    0.2804   -1.4819   -1.4125 H   0  0  0  1  0  0  0  0  0  0  0  0
    1.2069   -0.1784   -0.0093 C   0  0  0  1  0  0  0  0  0  0  0  0
    1.2511   -0.0677    1.0541 H   0  0  0  1  0  0  0  0  0  0  0  0
    2.5722   -0.5276   -0.5348 C   0  0  0  1  0  0  0  0  0  0  0  0
    2.8338   -1.5054   -0.1879 H   0  0  0  1  0  0  0  0  0  0  0  0
    3.2769    0.1849   -0.1598 H   0  0  0  1  0  0  0  0  0  0  0  0
   -0.4511    1.5403    1.2990 O   0  0  0  1  0  0  0  0  0  0  0  0
   -1.0235    2.2460    1.6087 H   0  0  0  1  0  0  0  0  0  0  0  0
   -2.8343    0.8773    0.0134 O   0  0  0  1  0  0  0  0  0  0  0  0
   -2.7117    1.2199    0.9017 H   0  0  0  1  0  0  0  0  0  0  0  0
   -2.0882   -1.8652   -0.5399 O   0  0  0  1  0  0  0  0  0  0  0  0
   -2.7988   -2.0317    0.0839 H   0  0  0  1  0  0  0  0  0  0  0  0
    0.5914   -2.4735    0.3553 O   0  0  0  1  0  0  0  0  0  0  0  0
    0.1785   -2.4616    1.2219 H   0  0  0  1  0  0  0  0  0  0  0  0
    0.7708    1.0561   -0.5991 O   0  0  0  1  0  0  0  0  0  0  0  0
    2.6258   -0.5181   -1.9541 O   0  0  0  1  0  0  0  0  0  0  0  0
    2.9633    0.3283   -2.2564 H   0  0  0  1  0  0  0  0  0  0  0  0
  1  2  1  0  0  0  0
  1  3  1  0  0  0  0
  1 14  1  0  0  0  0
  1 22  1  0  0  0  0
  3  4  1  0  0  0  0
  3  5  1  0  0  0  0
  3 16  1  0  0  0  0
  5  6  1  0  0  0  0
  5  7  1  0  0  0  0
  5 18  1  0  0  0  0
  7  8  1  0  0  0  0
  7  9  1  0  0  0  0
  7 20  1  0  0  0  0
  9 10  1  0  0  0  0
  9 11  1  0  0  0  0
  9 22  1  0  0  0  0
 11 12  1  0  0  0  0
 11 13  1  0  0  0  0
 11 23  1  0  0  0  0
 14 15  1  0  0  0  0
 16 17  1  0  0  0  0
 18 19  1  0  0  0  0
 20 21  1  0  0  0  0
 23 24  1  0  0  0  0
M  END
> <ConfClashScore>
0 

> <ConfOneFourInteractionScore>
-0.998705 

> <ConfScore>
0.45281 

> <ConfScorePBest>
0.0909514 

> <ConfTolerance>
0.25 

$$$$
GLC.****
  PyMOL2.4          3D                             0

 24 24  0  0  0  0  0  0  0  0999 V2000
   -0.5572    1.4380    0.0334 C   0  0  0  1  0  0  0  0  0  0  0  0
   -0.3905    1.6202   -1.0077 H   0  0  0  1  0  0  0  0  0  0  0  0
   -1.6859    0.4178    0.1960 C   0  0  0  1  0  0  0  0  0  0  0  0
   -2.5575    0.7715   -0.3139 H   0  0  0  1  0  0  0  0  0  0  0  0
   -1.2742   -0.9188   -0.3863 C   0  0  0  1  0  0  0  0  0  0  0  0
   -2.0231   -1.6465   -0.1529 H   0  0  0  1  0  0  0  0  0  0  0  0
    0.0647   -1.3818    0.1840 C   0  0  0  1  0  0  0  0  0  0  0  0
    0.3918   -2.2545   -0.3416 H   0  0  0  1  0  0  0  0  0  0  0  0
    1.1044   -0.2759    0.0258 C   0  0  0  1  0  0  0  0  0  0  0  0
    2.0159   -0.5802    0.4965 H   0  0  0  1  0  0  0  0  0  0  0  0
    1.3513   -0.0352   -1.4381 C   0  0  0  1  0  0  0  0  0  0  0  0
    0.4886    0.4381   -1.8585 H   0  0  0  1  0  0  0  0  0  0  0  0
    1.5116   -0.9776   -1.9188 H   0  0  0  1  0  0  0  0  0  0  0  0
   -0.9168    2.6325    0.6645 O   0  0  0  1  0  0  0  0  0  0  0  0
   -1.3860    3.1944    0.0436 H   0  0  0  1  0  0  0  0  0  0  0  0
   -1.9785    0.2565    1.5847 O   0  0  0  1  0  0  0  0  0  0  0  0
   -1.2069   -0.0932    2.0363 H   0  0  0  1  0  0  0  0  0  0  0  0
   -1.1576   -0.7927   -1.8043 O   0  0  0  1  0  0  0  0  0  0  0  0
   -1.8356   -1.3225   -2.2300 H   0  0  0  1  0  0  0  0  0  0  0  0
   -0.0918   -1.6905    1.5698 O   0  0  0  1  0  0  0  0  0  0  0  0
   -0.2412   -2.6331    1.6732 H   0  0  0  1  0  0  0  0  0  0  0  0
    0.6473    0.9288    0.6271 O   0  0  0  1  0  0  0  0  0  0  0  0
    2.4835    0.7928   -1.6686 O   0  0  0  1  0  0  0  0  0  0  0  0
    3.0394    0.8008   -0.8860 H   0  0  0  1  0  0  0  0  0  0  0  0
  1  2  1  0  0  0  0
  1  3  1  0  0  0  0
  1 14  1  0  0  0  0
  1 22  1  0  0  0  0
  3  4  1  0  0  0  0
  3  5  1  0  0  0  0
  3 16  1  0  0  0  0
  5  6  1  0  0  0  0
  5  7  1  0  0  0  0
  5 18  1  0  0  0  0
  7  8  1  0  0  0  0
  7  9  1  0  0  0  0
  7 20  1  0  0  0  0
  9 10  1  0  0  0  0
  9 11  1  0  0  0  0
  9 22  1  0  0  0  0
 11 12  1  0  0  0  0
 11 13  1  0  0  0  0
 11 23  1  0  0  0  0
 14 15  1  0  0  0  0
 16 17  1  0  0  0  0
 18 19  1  0  0  0  0
 20 21  1  0  0  0  0
 23 24  1  0  0  0  0
M  END
> <ConfClashScore>
0 

> <ConfOneFourInteractionScore>
-0.970024 

> <ConfScore>
0.455533 

> <ConfScorePBest>
0.0874018 

> <ConfTolerance>
0.25 

$$$$
GLC.****
  PyMOL2.4          3D                             0

 24 24  0  0  0  0  0  0  0  0999 V2000
   -0.5832    1.4740    0.0695 C   0  0  0  1  0  0  0  0  0  0  0  0
   -0.8728    2.4606   -0.2264 H   0  0  0  1  0  0  0  0  0  0  0  0
   -1.4730    0.3894   -0.5081 C   0  0  0  1  0  0  0  0  0  0  0  0
   -1.1777    0.1721   -1.5134 H   0  0  0  1  0  0  0  0  0  0  0  0
   -1.3076   -0.8647    0.3705 C   0  0  0  1  0  0  0  0  0  0  0  0
   -1.2031   -0.6365    1.4106 H   0  0  0  1  0  0  0  0  0  0  0  0
   -0.0274   -1.2887   -0.2653 C   0  0  0  1  0  0  0  0  0  0  0  0
   -0.1810   -1.4319   -1.3145 H   0  0  0  1  0  0  0  0  0  0  0  0
    1.0154   -0.2270   -0.0524 C   0  0  0  1  0  0  0  0  0  0  0  0
    1.1899   -0.1070    0.9965 H   0  0  0  1  0  0  0  0  0  0  0  0
    2.2929   -0.6407   -0.7297 C   0  0  0  1  0  0  0  0  0  0  0  0
    2.1915   -0.5149   -1.7874 H   0  0  0  1  0  0  0  0  0  0  0  0
    2.4953   -1.6681   -0.5100 H   0  0  0  1  0  0  0  0  0  0  0  0
   -0.4758    1.4171    1.4623 O   0  0  0  1  0  0  0  0  0  0  0  0
   -0.1134    2.2435    1.7898 H   0  0  0  1  0  0  0  0  0  0  0  0
   -2.8354    0.8180   -0.4935 O   0  0  0  1  0  0  0  0  0  0  0  0
   -3.0340    1.2258    0.3526 H   0  0  0  1  0  0  0  0  0  0  0  0
   -2.3605   -1.8137    0.1941 O   0  0  0  1  0  0  0  0  0  0  0  0
   -2.7498   -1.7022   -0.6763 H   0  0  0  1  0  0  0  0  0  0  0  0
    0.4134   -2.5131    0.3235 O   0  0  0  1  0  0  0  0  0  0  0  0
    1.1851   -2.3465    0.8696 H   0  0  0  1  0  0  0  0  0  0  0  0
    0.5711    1.0064   -0.5993 O   0  0  0  1  0  0  0  0  0  0  0  0
    3.3655    0.1628   -0.2594 O   0  0  0  1  0  0  0  0  0  0  0  0
    3.8268    0.5508   -1.0066 H   0  0  0  1  0  0  0  0  0  0  0  0
  1  2  1  0  0  0  0
  1  3  1  0  0  0  0
  1 14  1  0  0  0  0
  1 22  1  0  0  0  0
  3  4  1  0  0  0  0
  3  5  1  0  0  0  0
  3 16  1  0  0  0  0
  5  6  1  0  0  0  0
  5  7  1  0  0  0  0
  5 18  1  0  0  0  0
  7  8  1  0  0  0  0
  7  9  1  0  0  0  0
  7 20  1  0  0  0  0
  9 10  1  0  0  0  0
  9 11  1  0  0  0  0
  9 22  1  0  0  0  0
 11 12  1  0  0  0  0
 11 13  1  0  0  0  0
 11 23  1  0  0  0  0
 14 15  1  0  0  0  0
 16 17  1  0  0  0  0
 18 19  1  0  0  0  0
 20 21  1  0  0  0  0
 23 24  1  0  0  0  0
M  END
> <ConfClashScore>
0 

> <ConfOneFourInteractionScore>
-0.942638 

> <ConfScore>
0.506206 

> <ConfScorePBest>
0.0838522 

> <ConfTolerance>
0.369604 

$$$$
GLC.****
  PyMOL2.4          3D                             0

 24 24  0  0  0  0  0  0  0  0999 V2000
   -0.8435    1.3134   -0.2250 C   0  0  0  1  0  0  0  0  0  0  0  0
   -1.2475    1.7386   -1.1199 H   0  0  0  1  0  0  0  0  0  0  0  0
   -1.8010    0.2358    0.2703 C   0  0  0  1  0  0  0  0  0  0  0  0
   -2.8090    0.5223    0.0543 H   0  0  0  1  0  0  0  0  0  0  0  0
   -1.4773   -1.0558   -0.4369 C   0  0  0  1  0  0  0  0  0  0  0  0
   -2.1729   -1.8087   -0.1300 H   0  0  0  1  0  0  0  0  0  0  0  0
   -0.0718   -1.5095   -0.1000 C   0  0  0  1  0  0  0  0  0  0  0  0
    0.3185   -2.0764   -0.9193 H   0  0  0  1  0  0  0  0  0  0  0  0
    0.8331   -0.3252    0.1575 C   0  0  0  1  0  0  0  0  0  0  0  0
    0.8374   -0.1277    1.2090 H   0  0  0  1  0  0  0  0  0  0  0  0
    2.2337   -0.6886   -0.2950 C   0  0  0  1  0  0  0  0  0  0  0  0
    2.2754   -0.7613   -1.3617 H   0  0  0  1  0  0  0  0  0  0  0  0
    2.5377   -1.6183    0.1386 H   0  0  0  1  0  0  0  0  0  0  0  0
   -0.7445    2.3106    0.7670 O   0  0  0  1  0  0  0  0  0  0  0  0
   -0.4513    3.1325    0.3669 H   0  0  0  1  0  0  0  0  0  0  0  0
   -1.6471    0.0665    1.6657 O   0  0  0  1  0  0  0  0  0  0  0  0
   -1.3379    0.8873    2.0560 H   0  0  0  1  0  0  0  0  0  0  0  0
   -1.5811   -0.8574   -1.8476 O   0  0  0  1  0  0  0  0  0  0  0  0
   -0.7720   -0.4579   -2.1754 H   0  0  0  1  0  0  0  0  0  0  0  0
   -0.1133   -2.3284    1.0696 O   0  0  0  1  0  0  0  0  0  0  0  0
    0.6736   -2.1735    1.5972 H   0  0  0  1  0  0  0  0  0  0  0  0
    0.4472    0.8371   -0.5045 O   0  0  0  1  0  0  0  0  0  0  0  0
    3.0744    0.3820    0.1695 O   0  0  0  1  0  0  0  0  0  0  0  0
    3.6884    0.6317   -0.5249 H   0  0  0  1  0  0  0  0  0  0  0  0
  1  2  1  0  0  0  0
  1  3  1  0  0  0  0
  1 14  1  0  0  0  0
  1 22  1  0  0  0  0
  3  4  1  0  0  0  0
  3  5  1  0  0  0  0
  3 16  1  0  0  0  0
  5  6  1  0  0  0  0
  5  7  1  0  0  0  0
  5 18  1  0  0  0  0
  7  8  1  0  0  0  0
  7  9  1  0  0  0  0
  7 20  1  0  0  0  0
  9 10  1  0  0  0  0
  9 11  1  0  0  0  0
  9 22  1  0  0  0  0
 11 12  1  0  0  0  0
 11 13  1  0  0  0  0
 11 23  1  0  0  0  0
 14 15  1  0  0  0  0
 16 17  1  0  0  0  0
 18 19  1  0  0  0  0
 20 21  1  0  0  0  0
 23 24  1  0  0  0  0
M  END
> <ConfClashScore>
0 

> <ConfOneFourInteractionScore>
-0.970024 

> <ConfScore>
0.522256 

> <ConfScorePBest>
0.0803026 

> <ConfTolerance>
0.885333 

$$$$
GLC.****
  PyMOL2.4          3D                             0

 24 24  0  0  0  0  0  0  0  0999 V2000
   -0.3198    1.4258   -0.2545 C   0  0  0  1  0  0  0  0  0  0  0  0
    0.0622    1.3896   -1.2533 H   0  0  0  1  0  0  0  0  0  0  0  0
   -1.5598    0.5622   -0.1882 C   0  0  0  1  0  0  0  0  0  0  0  0
   -2.0077    0.5183   -1.1590 H   0  0  0  1  0  0  0  0  0  0  0  0
   -1.2194   -0.8429    0.2640 C   0  0  0  1  0  0  0  0  0  0  0  0
   -1.2643   -0.8891    1.3321 H   0  0  0  1  0  0  0  0  0  0  0  0
    0.1665   -1.2248   -0.1906 C   0  0  0  1  0  0  0  0  0  0  0  0
    0.2327   -1.1403   -1.2553 H   0  0  0  1  0  0  0  0  0  0  0  0
    1.1689   -0.2806    0.4627 C   0  0  0  1  0  0  0  0  0  0  0  0
    1.4143   -0.6657    1.4304 H   0  0  0  1  0  0  0  0  0  0  0  0
    2.4052   -0.2393   -0.3886 C   0  0  0  1  0  0  0  0  0  0  0  0
    2.9090   -1.1814   -0.3301 H   0  0  0  1  0  0  0  0  0  0  0  0
    3.0540    0.5352   -0.0362 H   0  0  0  1  0  0  0  0  0  0  0  0
   -0.6818    2.7392    0.0594 O   0  0  0  1  0  0  0  0  0  0  0  0
   -1.2805    2.7360    0.8099 H   0  0  0  1  0  0  0  0  0  0  0  0
   -2.4822    1.1398    0.7368 O   0  0  0  1  0  0  0  0  0  0  0  0
   -3.2921    0.6244    0.7459 H   0  0  0  1  0  0  0  0  0  0  0  0
   -2.1648   -1.7573   -0.2930 O   0  0  0  1  0  0  0  0  0  0  0  0
   -2.8912   -1.8816    0.3222 H   0  0  0  1  0  0  0  0  0  0  0  0
    0.4474   -2.5698    0.1994 O   0  0  0  1  0  0  0  0  0  0  0  0
    0.8469   -3.0399   -0.5361 H   0  0  0  1  0  0  0  0  0  0  0  0
    0.6926    1.0311    0.6158 O   0  0  0  1  0  0  0  0  0  0  0  0
    2.0477    0.0222   -1.7394 O   0  0  0  1  0  0  0  0  0  0  0  0
    2.3862   -0.6782   -2.3018 H   0  0  0  1  0  0  0  0  0  0  0  0
  1  2  1  0  0  0  0
  1  3  1  0  0  0  0
  1 14  1  0  0  0  0
  1 22  1  0  0  0  0
  3  4  1  0  0  0  0
  3  5  1  0  0  0  0
  3 16  1  0  0  0  0
  5  6  1  0  0  0  0
  5  7  1  0  0  0  0
  5 18  1  0  0  0  0
  7  8  1  0  0  0  0
  7  9  1  0  0  0  0
  7 20  1  0  0  0  0
  9 10  1  0  0  0  0
  9 11  1  0  0  0  0
  9 22  1  0  0  0  0
 11 12  1  0  0  0  0
 11 13  1  0  0  0  0
 11 23  1  0  0  0  0
 14 15  1  0  0  0  0
 16 17  1  0  0  0  0
 18 19  1  0  0  0  0
 20 21  1  0  0  0  0
 23 24  1  0  0  0  0
M  END
> <ConfClashScore>
2.90882e-05 

> <ConfOneFourInteractionScore>
-0.95967 

> <ConfScore>
0.537094 

> <ConfScorePBest>
0.076753 

> <ConfTolerance>
0.682615 

$$$$
GLC.****
  PyMOL2.4          3D                             0

 24 24  0  0  0  0  0  0  0  0999 V2000
   -0.4669    1.5380   -0.1768 C   0  0  0  1  0  0  0  0  0  0  0  0
   -0.6502    2.4642   -0.6803 H   0  0  0  1  0  0  0  0  0  0  0  0
   -1.6313    0.5874   -0.4228 C   0  0  0  1  0  0  0  0  0  0  0  0
   -1.7524    0.4295   -1.4742 H   0  0  0  1  0  0  0  0  0  0  0  0
   -1.3246   -0.7452    0.2678 C   0  0  0  1  0  0  0  0  0  0  0  0
   -1.3534   -0.5976    1.3271 H   0  0  0  1  0  0  0  0  0  0  0  0
    0.0404   -1.2934   -0.1111 C   0  0  0  1  0  0  0  0  0  0  0  0
    0.0172   -1.6184   -1.1303 H   0  0  0  1  0  0  0  0  0  0  0  0
    1.1140   -0.2272    0.0479 C   0  0  0  1  0  0  0  0  0  0  0  0
    1.2251    0.0129    1.0847 H   0  0  0  1  0  0  0  0  0  0  0  0
    2.4240   -0.7508   -0.4915 C   0  0  0  1  0  0  0  0  0  0  0  0
    3.2083   -0.0521   -0.2877 H   0  0  0  1  0  0  0  0  0  0  0  0
    2.3486   -0.9050   -1.5476 H   0  0  0  1  0  0  0  0  0  0  0  0
   -0.3376    1.7701    1.1926 O   0  0  0  1  0  0  0  0  0  0  0  0
   -0.9366    2.4723    1.4566 H   0  0  0  1  0  0  0  0  0  0  0  0
   -2.8306    1.1448    0.1168 O   0  0  0  1  0  0  0  0  0  0  0  0
   -2.8825    0.9463    1.0546 H   0  0  0  1  0  0  0  0  0  0  0  0
   -2.3213   -1.6966   -0.1084 O   0  0  0  1  0  0  0  0  0  0  0  0
   -1.9669   -2.2831   -0.7807 H   0  0  0  1  0  0  0  0  0  0  0  0
    0.3516   -2.4012    0.7358 O   0  0  0  1  0  0  0  0  0  0  0  0
    0.8166   -3.0712    0.2292 H   0  0  0  1  0  0  0  0  0  0  0  0
    0.7383    0.9542   -0.6770 O   0  0  0  1  0  0  0  0  0  0  0  0
    2.6923   -1.9873    0.1625 O   0  0  0  1  0  0  0  0  0  0  0  0
    2.3657   -2.7120   -0.3758 H   0  0  0  1  0  0  0  0  0  0  0  0
  1  2  1  0  0  0  0
  1  3  1  0  0  0  0
  1 14  1  0  0  0  0
  1 22  1  0  0  0  0
  3  4  1  0  0  0  0
  3  5  1  0  0  0  0
  3 16  1  0  0  0  0
  5  6  1  0  0  0  0
  5  7  1  0  0  0  0
  5 18  1  0  0  0  0
  7  8  1  0  0  0  0
  7  9  1  0  0  0  0
  7 20  1  0  0  0  0
  9 10  1  0  0  0  0
  9 11  1  0  0  0  0
  9 22  1  0  0  0  0
 11 12  1  0  0  0  0
 11 13  1  0  0  0  0
 11 23  1  0  0  0  0
 14 15  1  0  0  0  0
 16 17  1  0  0  0  0
 18 19  1  0  0  0  0
 20 21  1  0  0  0  0
 23 24  1  0  0  0  0
M  END
> <ConfClashScore>
0 

> <ConfOneFourInteractionScore>
-0.970024 

> <ConfScore>
0.60653 

> <ConfScorePBest>
0.0732034 

> <ConfTolerance>
0.25 

$$$$
GLC.****
  PyMOL2.4          3D                             0

 24 24  0  0  0  0  0  0  0  0999 V2000
   -0.6622    1.3102    0.0635 C   0  0  0  1  0  0  0  0  0  0  0  0
   -0.4882    1.5335   -0.9684 H   0  0  0  1  0  0  0  0  0  0  0  0
   -1.7442    0.2342    0.1749 C   0  0  0  1  0  0  0  0  0  0  0  0
   -2.6235    0.5634   -0.3384 H   0  0  0  1  0  0  0  0  0  0  0  0
   -1.2614   -1.0625   -0.4422 C   0  0  0  1  0  0  0  0  0  0  0  0
   -1.9789   -1.8312   -0.2445 H   0  0  0  1  0  0  0  0  0  0  0  0
    0.0887   -1.4810    0.1358 C   0  0  0  1  0  0  0  0  0  0  0  0
    0.4644   -2.3202   -0.4114 H   0  0  0  1  0  0  0  0  0  0  0  0
    1.0778   -0.3237    0.0302 C   0  0  0  1  0  0  0  0  0  0  0  0
    1.9951   -0.6004    0.5064 H   0  0  0  1  0  0  0  0  0  0  0  0
    1.3353   -0.0251   -1.4188 C   0  0  0  1  0  0  0  0  0  0  0  0
    2.1227    0.6949   -1.4990 H   0  0  0  1  0  0  0  0  0  0  0  0
    0.4454    0.3675   -1.8646 H   0  0  0  1  0  0  0  0  0  0  0  0
   -1.0907    2.4757    0.7314 O   0  0  0  1  0  0  0  0  0  0  0  0
   -1.5349    3.0566    0.1094 H   0  0  0  1  0  0  0  0  0  0  0  0
   -2.0504    0.0148    1.5526 O   0  0  0  1  0  0  0  0  0  0  0  0
   -1.5917    0.6645    2.0902 H   0  0  0  1  0  0  0  0  0  0  0  0
   -1.1288   -0.8853   -1.8549 O   0  0  0  1  0  0  0  0  0  0  0  0
   -1.3046    0.0310   -2.0809 H   0  0  0  1  0  0  0  0  0  0  0  0
   -0.0745   -1.8411    1.5084 O   0  0  0  1  0  0  0  0  0  0  0  0
    0.2901   -2.7169    1.6554 H   0  0  0  1  0  0  0  0  0  0  0  0
    0.5555    0.8386    0.6613 O   0  0  0  1  0  0  0  0  0  0  0  0
    1.7150   -1.2175   -2.0930 O   0  0  0  1  0  0  0  0  0  0  0  0
    2.6665   -1.3305   -2.0330 H   0  0  0  1  0  0  0  0  0  0  0  0
  1  2  1  0  0  0  0
  1  3  1  0  0  0  0
  1 14  1  0  0  0  0
  1 22  1  0  0  0  0
  3  4  1  0  0  0  0
  3  5  1  0  0  0  0
  3 16  1  0  0  0  0
  5  6  1  0  0  0  0
  5  7  1  0  0  0  0
  5 18  1  0  0  0  0
  7  8  1  0  0  0  0
  7  9  1  0  0  0  0
  7 20  1  0  0  0  0
  9 10  1  0  0  0  0
  9 11  1  0  0  0  0
  9 22  1  0  0  0  0
 11 12  1  0  0  0  0
 11 13  1  0  0  0  0
 11 23  1  0  0  0  0
 14 15  1  0  0  0  0
 16 17  1  0  0  0  0
 18 19  1  0  0  0  0
 20 21  1  0  0  0  0
 23 24  1  0  0  0  0
M  END
> <ConfClashScore>
0 

> <ConfOneFourInteractionScore>
-0.970024 

> <ConfScore>
0.6281 

> <ConfScorePBest>
0.0696538 

> <ConfTolerance>
0.25 

$$$$
GLC.****
  PyMOL2.4          3D                             0

 24 24  0  0  0  0  0  0  0  0999 V2000
   -0.5084    1.4984   -0.0064 C   0  0  0  1  0  0  0  0  0  0  0  0
   -0.7268    2.4658   -0.4082 H   0  0  0  1  0  0  0  0  0  0  0  0
   -1.6718    0.5568   -0.2892 C   0  0  0  1  0  0  0  0  0  0  0  0
   -1.8414    0.4994   -1.3441 H   0  0  0  1  0  0  0  0  0  0  0  0
   -1.3161   -0.8311    0.2532 C   0  0  0  1  0  0  0  0  0  0  0  0
   -1.2957   -0.7872    1.3221 H   0  0  0  1  0  0  0  0  0  0  0  0
    0.0355   -1.3172   -0.2406 C   0  0  0  1  0  0  0  0  0  0  0  0
   -0.0328   -1.5424   -1.2844 H   0  0  0  1  0  0  0  0  0  0  0  0
    1.1026   -0.2537   -0.0288 C   0  0  0  1  0  0  0  0  0  0  0  0
    1.2606   -0.1132    1.0201 H   0  0  0  1  0  0  0  0  0  0  0  0
    2.3926   -0.7012   -0.6779 C   0  0  0  1  0  0  0  0  0  0  0  0
    3.0327   -1.1095    0.0760 H   0  0  0  1  0  0  0  0  0  0  0  0
    2.8646    0.1485   -1.1254 H   0  0  0  1  0  0  0  0  0  0  0  0
   -0.3140    1.6002    1.3868 O   0  0  0  1  0  0  0  0  0  0  0  0
    0.3184    2.2983    1.5719 H   0  0  0  1  0  0  0  0  0  0  0  0
   -2.8503    1.0393    0.3577 O   0  0  0  1  0  0  0  0  0  0  0  0
   -3.6256    0.6756   -0.0760 H   0  0  0  1  0  0  0  0  0  0  0  0
   -2.3182   -1.7581   -0.1669 O   0  0  0  1  0  0  0  0  0  0  0  0
   -2.2182   -1.9348   -1.1051 H   0  0  0  1  0  0  0  0  0  0  0  0
    0.4003   -2.4961    0.4786 O   0  0  0  1  0  0  0  0  0  0  0  0
    0.8040   -2.2497    1.3140 H   0  0  0  1  0  0  0  0  0  0  0  0
    0.6783    0.9859   -0.6168 O   0  0  0  1  0  0  0  0  0  0  0  0
    2.1824   -1.6867   -1.6805 O   0  0  0  1  0  0  0  0  0  0  0  0
    2.1450   -2.5552   -1.2733 H   0  0  0  1  0  0  0  0  0  0  0  0
  1  2  1  0  0  0  0
  1  3  1  0  0  0  0
  1 14  1  0  0  0  0
  1 22  1  0  0  0  0
  3  4  1  0  0  0  0
  3  5  1  0  0  0  0
  3 16  1  0  0  0  0
  5  6  1  0  0  0  0
  5  7  1  0  0  0  0
  5 18  1  0  0  0  0
  7  8  1  0  0  0  0
  7  9  1  0  0  0  0
  7 20  1  0  0  0  0
  9 10  1  0  0  0  0
  9 11  1  0  0  0  0
  9 22  1  0  0  0  0
 11 12  1  0  0  0  0
 11 13  1  0  0  0  0
 11 23  1  0  0  0  0
 14 15  1  0  0  0  0
 16 17  1  0  0  0  0
 18 19  1  0  0  0  0
 20 21  1  0  0  0  0
 23 24  1  0  0  0  0
M  END
> <ConfClashScore>
0 

> <ConfOneFourInteractionScore>
-0.95967 

> <ConfScore>
0.746115 

> <ConfScorePBest>
0.0661042 

> <ConfTolerance>
0.25 

$$$$
GLC.****
  PyMOL2.4          3D                             0

 24 24  0  0  0  0  0  0  0  0999 V2000
   -0.5967    1.5344   -0.1523 C   0  0  0  1  0  0  0  0  0  0  0  0
   -0.8370    2.4514   -0.6485 H   0  0  0  1  0  0  0  0  0  0  0  0
   -1.5922    0.4504   -0.5730 C   0  0  0  1  0  0  0  0  0  0  0  0
   -1.5680    0.3355   -1.6366 H   0  0  0  1  0  0  0  0  0  0  0  0
   -1.2057   -0.8736    0.0944 C   0  0  0  1  0  0  0  0  0  0  0  0
   -1.2786   -0.7740    1.1572 H   0  0  0  1  0  0  0  0  0  0  0  0
    0.2348   -1.2251   -0.2905 C   0  0  0  1  0  0  0  0  0  0  0  0
    0.2961   -1.3746   -1.3483 H   0  0  0  1  0  0  0  0  0  0  0  0
    1.1593   -0.0764    0.1182 C   0  0  0  1  0  0  0  0  0  0  0  0
    1.1282    0.0456    1.1808 H   0  0  0  1  0  0  0  0  0  0  0  0
    2.5726   -0.3901   -0.3122 C   0  0  0  1  0  0  0  0  0  0  0  0
    3.0451    0.5044   -0.6607 H   0  0  0  1  0  0  0  0  0  0  0  0
    2.5520   -1.1135   -1.1003 H   0  0  0  1  0  0  0  0  0  0  0  0
   -0.6670    1.7202    1.2316 O   0  0  0  1  0  0  0  0  0  0  0  0
    0.2115    1.8958    1.5764 H   0  0  0  1  0  0  0  0  0  0  0  0
   -2.9082    0.8254   -0.1637 O   0  0  0  1  0  0  0  0  0  0  0  0
   -2.9155    0.9877    0.7824 H   0  0  0  1  0  0  0  0  0  0  0  0
   -2.0793   -1.9005   -0.3460 O   0  0  0  1  0  0  0  0  0  0  0  0
   -2.8972   -1.8622    0.1551 H   0  0  0  1  0  0  0  0  0  0  0  0
    0.6312   -2.4202    0.3837 O   0  0  0  1  0  0  0  0  0  0  0  0
   -0.1413   -2.8450    0.7638 H   0  0  0  1  0  0  0  0  0  0  0  0
    0.7262    1.1301   -0.5124 O   0  0  0  1  0  0  0  0  0  0  0  0
    3.3031   -0.9118    0.7885 O   0  0  0  1  0  0  0  0  0  0  0  0
    3.6382   -0.1880    1.3227 H   0  0  0  1  0  0  0  0  0  0  0  0
  1  2  1  0  0  0  0
  1  3  1  0  0  0  0
  1 14  1  0  0  0  0
  1 22  1  0  0  0  0
  3  4  1  0  0  0  0
  3  5  1  0  0  0  0
  3 16  1  0  0  0  0
  5  6  1  0  0  0  0
  5  7  1  0  0  0  0
  5 18  1  0  0  0  0
  7  8  1  0  0  0  0
  7  9  1  0  0  0  0
  7 20  1  0  0  0  0
  9 10  1  0  0  0  0
  9 11  1  0  0  0  0
  9 22  1  0  0  0  0
 11 12  1  0  0  0  0
 11 13  1  0  0  0  0
 11 23  1  0  0  0  0
 14 15  1  0  0  0  0
 16 17  1  0  0  0  0
 18 19  1  0  0  0  0
 20 21  1  0  0  0  0
 23 24  1  0  0  0  0
M  END
> <ConfClashScore>
0 

> <ConfOneFourInteractionScore>
-0.922804 

> <ConfScore>
0.792855 

> <ConfScorePBest>
0.0625545 

> <ConfTolerance>
0.25 

$$$$
GLC.****
  PyMOL2.4          3D                             0

 24 24  0  0  0  0  0  0  0  0999 V2000
   -0.4312    1.4893   -0.0317 C   0  0  0  1  0  0  0  0  0  0  0  0
   -0.6536    2.4290   -0.4924 H   0  0  0  1  0  0  0  0  0  0  0  0
   -1.5888    0.5168   -0.2712 C   0  0  0  1  0  0  0  0  0  0  0  0
   -1.7513    0.4059   -1.3230 H   0  0  0  1  0  0  0  0  0  0  0  0
   -1.2369   -0.8438    0.3392 C   0  0  0  1  0  0  0  0  0  0  0  0
   -1.1239   -0.7431    1.3985 H   0  0  0  1  0  0  0  0  0  0  0  0
    0.0768   -1.3407   -0.2721 C   0  0  0  1  0  0  0  0  0  0  0  0
   -0.0519   -1.4900   -1.3238 H   0  0  0  1  0  0  0  0  0  0  0  0
    1.1695   -0.2965   -0.0335 C   0  0  0  1  0  0  0  0  0  0  0  0
    1.3258   -0.1779    1.0183 H   0  0  0  1  0  0  0  0  0  0  0  0
    2.4456   -0.7502   -0.6820 C   0  0  0  1  0  0  0  0  0  0  0  0
    2.2615   -1.6421   -1.2437 H   0  0  0  1  0  0  0  0  0  0  0  0
    3.1774   -0.9483    0.0731 H   0  0  0  1  0  0  0  0  0  0  0  0
   -0.2527    1.6752    1.3540 O   0  0  0  1  0  0  0  0  0  0  0  0
   -0.7983    2.4067    1.6521 H   0  0  0  1  0  0  0  0  0  0  0  0
   -2.7740    1.0241    0.3436 O   0  0  0  1  0  0  0  0  0  0  0  0
   -3.5438    0.7086   -0.1356 H   0  0  0  1  0  0  0  0  0  0  0  0
   -2.2795   -1.7787    0.0577 O   0  0  0  1  0  0  0  0  0  0  0  0
   -2.7100   -1.5400   -0.7665 H   0  0  0  1  0  0  0  0  0  0  0  0
    0.4529   -2.5743    0.3420 O   0  0  0  1  0  0  0  0  0  0  0  0
    1.2325   -2.4373    0.8851 H   0  0  0  1  0  0  0  0  0  0  0  0
    0.7658    0.9519   -0.5987 O   0  0  0  1  0  0  0  0  0  0  0  0
    2.9276    0.2652   -1.5523 O   0  0  0  1  0  0  0  0  0  0  0  0
    3.5933    0.7870   -1.0981 H   0  0  0  1  0  0  0  0  0  0  0  0
  1  2  1  0  0  0  0
  1  3  1  0  0  0  0
  1 14  1  0  0  0  0
  1 22  1  0  0  0  0
  3  4  1  0  0  0  0
  3  5  1  0  0  0  0
  3 16  1  0  0  0  0
  5  6  1  0  0  0  0
  5  7  1  0  0  0  0
  5 18  1  0  0  0  0
  7  8  1  0  0  0  0
  7  9  1  0  0  0  0
  7 20  1  0  0  0  0
  9 10  1  0  0  0  0
  9 11  1  0  0  0  0
  9 22  1  0  0  0  0
 11 12  1  0  0  0  0
 11 13  1  0  0  0  0
 11 23  1  0  0  0  0
 14 15  1  0  0  0  0
 16 17  1  0  0  0  0
 18 19  1  0  0  0  0
 20 21  1  0  0  0  0
 23 24  1  0  0  0  0
M  END
> <ConfClashScore>
0 

> <ConfOneFourInteractionScore>
-0.980166 

> <ConfScore>
0.805658 

> <ConfScorePBest>
0.0590049 

> <ConfTolerance>
0.25 

$$$$
GLC.****
  PyMOL2.4          3D                             0

 24 24  0  0  0  0  0  0  0  0999 V2000
   -0.4290    1.4892   -0.0687 C   0  0  0  1  0  0  0  0  0  0  0  0
   -0.3330    1.6601   -1.1206 H   0  0  0  1  0  0  0  0  0  0  0  0
   -1.5385    0.4836    0.1894 C   0  0  0  1  0  0  0  0  0  0  0  0
   -2.4141    0.7964   -0.3402 H   0  0  0  1  0  0  0  0  0  0  0  0
   -1.1759   -0.9066   -0.2580 C   0  0  0  1  0  0  0  0  0  0  0  0
   -1.8752   -1.5868    0.1815 H   0  0  0  1  0  0  0  0  0  0  0  0
    0.2093   -1.3656    0.1082 C   0  0  0  1  0  0  0  0  0  0  0  0
    0.5124   -2.1480   -0.5559 H   0  0  0  1  0  0  0  0  0  0  0  0
    1.1407   -0.2466   -0.0024 C   0  0  0  1  0  0  0  0  0  0  0  0
    2.0345   -0.5415    0.5066 H   0  0  0  1  0  0  0  0  0  0  0  0
    1.4287   -0.0745   -1.4537 C   0  0  0  1  0  0  0  0  0  0  0  0
    1.8210   -0.9971   -1.8277 H   0  0  0  1  0  0  0  0  0  0  0  0
    2.1643    0.6953   -1.5589 H   0  0  0  1  0  0  0  0  0  0  0  0
   -0.7246    2.6956    0.5754 O   0  0  0  1  0  0  0  0  0  0  0  0
   -1.6305    2.9482    0.3827 H   0  0  0  1  0  0  0  0  0  0  0  0
   -1.8133    0.4557    1.5907 O   0  0  0  1  0  0  0  0  0  0  0  0
   -2.1585   -0.4068    1.8325 H   0  0  0  1  0  0  0  0  0  0  0  0
   -1.2933   -0.9551   -1.6807 O   0  0  0  1  0  0  0  0  0  0  0  0
   -2.1488   -1.3196   -1.9194 H   0  0  0  1  0  0  0  0  0  0  0  0
    0.2092   -1.8530    1.4507 O   0  0  0  1  0  0  0  0  0  0  0  0
   -0.5474   -2.4291    1.5824 H   0  0  0  1  0  0  0  0  0  0  0  0
    0.8204    0.9394    0.4594 O   0  0  0  1  0  0  0  0  0  0  0  0
    0.3083    0.2771   -2.2369 O   0  0  0  1  0  0  0  0  0  0  0  0
    0.5936    0.8085   -2.9837 H   0  0  0  1  0  0  0  0  0  0  0  0
  1  2  1  0  0  0  0
  1  3  1  0  0  0  0
  1 14  1  0  0  0  0
  1 22  1  0  0  0  0
  3  4  1  0  0  0  0
  3  5  1  0  0  0  0
  3 16  1  0  0  0  0
  5  6  1  0  0  0  0
  5  7  1  0  0  0  0
  5 18  1  0  0  0  0
  7  8  1  0  0  0  0
  7  9  1  0  0  0  0
  7 20  1  0  0  0  0
  9 10  1  0  0  0  0
  9 11  1  0  0  0  0
  9 22  1  0  0  0  0
 11 12  1  0  0  0  0
 11 13  1  0  0  0  0
 11 23  1  0  0  0  0
 14 15  1  0  0  0  0
 16 17  1  0  0  0  0
 18 19  1  0  0  0  0
 20 21  1  0  0  0  0
 23 24  1  0  0  0  0
M  END
> <ConfClashScore>
0.0131065 

> <ConfOneFourInteractionScore>
-0.998705 

> <ConfScore>
1.88574 

> <ConfScorePBest>
0.0554553 

> <ConfTolerance>
0.25 

$$$$
GLC.****
  PyMOL2.4          3D                             0

 24 24  0  0  0  0  0  0  0  0999 V2000
   -0.5515    1.3920   -0.1283 C   0  0  0  1  0  0  0  0  0  0  0  0
   -0.4414    1.5154   -1.1855 H   0  0  0  1  0  0  0  0  0  0  0  0
   -1.6438    0.3576    0.1512 C   0  0  0  1  0  0  0  0  0  0  0  0
   -2.5485    0.6600   -0.3335 H   0  0  0  1  0  0  0  0  0  0  0  0
   -1.2268   -1.0016   -0.3721 C   0  0  0  1  0  0  0  0  0  0  0  0
   -1.9440   -1.7311   -0.0585 H   0  0  0  1  0  0  0  0  0  0  0  0
    0.1503   -1.3986    0.1554 C   0  0  0  1  0  0  0  0  0  0  0  0
    0.4736   -2.2934   -0.3342 H   0  0  0  1  0  0  0  0  0  0  0  0
    1.1517   -0.2805   -0.1201 C   0  0  0  1  0  0  0  0  0  0  0  0
    2.0930   -0.5350    0.3205 H   0  0  0  1  0  0  0  0  0  0  0  0
    1.3192   -0.1224   -1.6040 C   0  0  0  1  0  0  0  0  0  0  0  0
    0.6022   -0.7345   -2.1100 H   0  0  0  1  0  0  0  0  0  0  0  0
    2.3070   -0.4233   -1.8844 H   0  0  0  1  0  0  0  0  0  0  0  0
   -0.9095    2.6108    0.4480 O   0  0  0  1  0  0  0  0  0  0  0  0
   -1.3104    2.4541    1.3061 H   0  0  0  1  0  0  0  0  0  0  0  0
   -1.8630    0.2730    1.5601 O   0  0  0  1  0  0  0  0  0  0  0  0
   -2.3083   -0.5521    1.7661 H   0  0  0  1  0  0  0  0  0  0  0  0
   -1.1839   -0.9579   -1.7991 O   0  0  0  1  0  0  0  0  0  0  0  0
   -0.9636   -0.0687   -2.0860 H   0  0  0  1  0  0  0  0  0  0  0  0
    0.0707   -1.6274    1.5631 O   0  0  0  1  0  0  0  0  0  0  0  0
   -0.7847   -2.0063    1.7784 H   0  0  0  1  0  0  0  0  0  0  0  0
    0.6938    0.9471    0.4321 O   0  0  0  1  0  0  0  0  0  0  0  0
    1.1189    1.2375   -1.9661 O   0  0  0  1  0  0  0  0  0  0  0  0
    1.3901    1.8054   -1.2412 H   0  0  0  1  0  0  0  0  0  0  0  0
  1  2  1  0  0  0  0
  1  3  1  0  0  0  0
  1 14  1  0  0  0  0
  1 22  1  0  0  0  0
  3  4  1  0  0  0  0
  3  5  1  0  0  0  0
  3 16  1  0  0  0  0
  5  6  1  0  0  0  0
  5  7  1  0  0  0  0
  5 18  1  0  0  0  0
  7  8  1  0  0  0  0
  7  9  1  0  0  0  0
  7 20  1  0  0  0  0
  9 10  1  0  0  0  0
  9 11  1  0  0  0  0
  9 22  1  0  0  0  0
 11 12  1  0  0  0  0
 11 13  1  0  0  0  0
 11 23  1  0  0  0  0
 14 15  1  0  0  0  0
 16 17  1  0  0  0  0
 18 19  1  0  0  0  0
 20 21  1  0  0  0  0
 23 24  1  0  0  0  0
M  END
> <ConfClashScore>
0.0203543 

> <ConfOneFourInteractionScore>
-0.980166 

> <ConfScore>
2.85742 

> <ConfScorePBest>
0.0519057 

> <ConfTolerance>
0.25 

$$$$
GLC.****
  PyMOL2.4          3D                             0

 24 24  0  0  0  0  0  0  0  0999 V2000
   -0.5679    1.4116   -0.1361 C   0  0  0  1  0  0  0  0  0  0  0  0
   -0.4482    1.5269   -1.1931 H   0  0  0  1  0  0  0  0  0  0  0  0
   -1.6885    0.4079    0.1438 C   0  0  0  1  0  0  0  0  0  0  0  0
   -2.5934    0.7440   -0.3178 H   0  0  0  1  0  0  0  0  0  0  0  0
   -1.2970   -0.9572   -0.4305 C   0  0  0  1  0  0  0  0  0  0  0  0
   -2.0515   -1.6769   -0.1904 H   0  0  0  1  0  0  0  0  0  0  0  0
    0.0395   -1.3914    0.1803 C   0  0  0  1  0  0  0  0  0  0  0  0
    0.3477   -2.3187   -0.2555 H   0  0  0  1  0  0  0  0  0  0  0  0
    1.0933   -0.3177   -0.1019 C   0  0  0  1  0  0  0  0  0  0  0  0
    2.0183   -0.5959    0.3584 H   0  0  0  1  0  0  0  0  0  0  0  0
    1.2918   -0.1866   -1.5935 C   0  0  0  1  0  0  0  0  0  0  0  0
    2.3328   -0.2787   -1.8232 H   0  0  0  1  0  0  0  0  0  0  0  0
    0.9380    0.7701   -1.9167 H   0  0  0  1  0  0  0  0  0  0  0  0
   -0.8974    2.6562    0.4388 O   0  0  0  1  0  0  0  0  0  0  0  0
   -1.1655    2.5267    1.3515 H   0  0  0  1  0  0  0  0  0  0  0  0
   -1.8863    0.2939    1.5538 O   0  0  0  1  0  0  0  0  0  0  0  0
   -2.2513   -0.5703    1.7573 H   0  0  0  1  0  0  0  0  0  0  0  0
   -1.1654   -0.8595   -1.8494 O   0  0  0  1  0  0  0  0  0  0  0  0
   -0.9816    0.0509   -2.0922 H   0  0  0  1  0  0  0  0  0  0  0  0
   -0.1106   -1.5543    1.5914 O   0  0  0  1  0  0  0  0  0  0  0  0
   -0.0653   -2.4873    1.8129 H   0  0  0  1  0  0  0  0  0  0  0  0
    0.6523    0.9328    0.4319 O   0  0  0  1  0  0  0  0  0  0  0  0
    0.5662   -1.2115   -2.2658 O   0  0  0  1  0  0  0  0  0  0  0  0
    0.3359   -0.9144   -3.1491 H   0  0  0  1  0  0  0  0  0  0  0  0
  1  2  1  0  0  0  0
  1  3  1  0  0  0  0
  1 14  1  0  0  0  0
  1 22  1  0  0  0  0
  3  4  1  0  0  0  0
  3  5  1  0  0  0  0
  3 16  1  0  0  0  0
  5  6  1  0  0  0  0
  5  7  1  0  0  0  0
  5 18  1  0  0  0  0
  7  8  1  0  0  0  0
  7  9  1  0  0  0  0
  7 20  1  0  0  0  0
  9 10  1  0  0  0  0
  9 11  1  0  0  0  0
  9 22  1  0  0  0  0
 11 12  1  0  0  0  0
 11 13  1  0  0  0  0
 11 23  1  0  0  0  0
 14 15  1  0  0  0  0
 16 17  1  0  0  0  0
 18 19  1  0  0  0  0
 20 21  1  0  0  0  0
 23 24  1  0  0  0  0
M  END
> <ConfClashScore>
0.0211488 

> <ConfOneFourInteractionScore>
-0.95967 

> <ConfScore>
2.96098 

> <ConfScorePBest>
0.0483561 

> <ConfTolerance>
0.25 

$$$$
