7NA.****
  PyMOL2.4          3D                             0

 25 26  0  0  0  0  0  0  0  0999 V2000
    0.3807    1.2553    0.0593 C   0  0  0  1  0  0  0  0  0  0  0  0
    2.3305    2.8614    0.0104 C   0  0  0  1  0  0  0  0  0  0  0  0
   -1.8558    2.1405    0.0703 C   0  0  0  1  0  0  0  0  0  0  0  0
   -0.5122    2.3417    0.0514 C   0  0  0  1  0  0  0  0  0  0  0  0
    2.6122    0.3901    0.0467 C   0  0  0  1  0  0  0  0  0  0  0  0
    0.7561   -1.1490    0.0951 C   0  0  0  1  0  0  0  0  0  0  0  0
   -2.1541   -1.6339    0.1366 C   0  0  0  1  0  0  0  0  0  0  0  0
    1.7713    1.4586    0.0396 C   0  0  0  1  0  0  0  0  0  0  0  0
    2.1146   -0.9157    0.0759 C   0  0  0  1  0  0  0  0  0  0  0  0
   -2.4064    0.8586    0.0996 C   0  0  0  1  0  0  0  0  0  0  0  0
   -1.5774   -0.2660    0.1077 C   0  0  0  1  0  0  0  0  0  0  0  0
   -0.1278   -0.0656    0.0872 C   0  0  0  1  0  0  0  0  0  0  0  0
   -3.4799   -1.6144    0.4388 O   0  5  0  1  0  0  0  0  0  0  0  0
   -1.5263   -2.6569   -0.0821 O   0  0  0  1  0  0  0  0  0  0  0  0
   -3.7526    0.7037    0.1202 O   0  0  0  1  0  0  0  0  0  0  0  0
    2.9757   -1.9622    0.0855 O   0  0  0  1  0  0  0  0  0  0  0  0
   -4.0883    0.6979   -0.7792 H   0  0  0  1  0  0  0  0  0  0  0  0
   -2.4909    2.9639    0.0628 H   0  0  0  1  0  0  0  0  0  0  0  0
   -0.1391    3.3123    0.0307 H   0  0  0  1  0  0  0  0  0  0  0  0
    3.6402    0.5466    0.0303 H   0  0  0  1  0  0  0  0  0  0  0  0
    0.3917   -2.1229    0.1154 H   0  0  0  1  0  0  0  0  0  0  0  0
    3.3271   -2.0961   -0.7979 H   0  0  0  1  0  0  0  0  0  0  0  0
    1.6560    3.5040   -0.5160 H   0  0  0  1  0  0  0  0  0  0  0  0
    3.2787    2.8569   -0.4855 H   0  0  0  1  0  0  0  0  0  0  0  0
    2.4530    3.2171    1.0121 H   0  0  0  1  0  0  0  0  0  0  0  0
  1  4  1  0  0  0  0
  1  8  2  0  0  0  0
  1 12  1  0  0  0  0
  2  8  1  0  0  0  0
  2 23  1  0  0  0  0
  2 24  1  0  0  0  0
  2 25  1  0  0  0  0
  3  4  2  0  0  0  0
  3 10  1  0  0  0  0
  3 18  1  0  0  0  0
  4 19  1  0  0  0  0
  5  8  1  0  0  0  0
  5  9  2  0  0  0  0
  5 20  1  0  0  0  0
  6  9  1  0  0  0  0
  6 12  2  0  0  0  0
  6 21  1  0  0  0  0
  7 11  1  0  0  0  0
  7 13  1  0  0  0  0
  7 14  2  0  0  0  0
  9 16  1  0  0  0  0
 10 11  2  0  0  0  0
 10 15  1  0  0  0  0
 11 12  1  0  0  0  0
 15 17  1  0  0  0  0
 16 22  1  0  0  0  0
M  END
> <ConfClashScore>
0 

> <ConfOneFourInteractionScore>
0 

> <ConfScore>
1.0721 

> <ConfScorePBest>
0.296945 

> <ConfTolerance>
0.25 

$$$$
7NA.****
  PyMOL2.4          3D                             0

 25 26  0  0  0  0  0  0  0  0999 V2000
    0.3613    1.2899    0.0421 C   0  0  0  1  0  0  0  0  0  0  0  0
    2.3637    2.8710   -0.0142 C   0  0  0  1  0  0  0  0  0  0  0  0
   -1.9183    2.1289    0.1989 C   0  0  0  1  0  0  0  0  0  0  0  0
   -0.5688    2.3612    0.1444 C   0  0  0  1  0  0  0  0  0  0  0  0
    2.5948    0.3807   -0.1384 C   0  0  0  1  0  0  0  0  0  0  0  0
    0.7296   -1.1413   -0.0869 C   0  0  0  1  0  0  0  0  0  0  0  0
   -2.1026   -1.6253    0.0222 C   0  0  0  1  0  0  0  0  0  0  0  0
    1.7762    1.4797   -0.0385 C   0  0  0  1  0  0  0  0  0  0  0  0
    2.0725   -0.9288   -0.1678 C   0  0  0  1  0  0  0  0  0  0  0  0
   -2.4231    0.8123    0.1559 C   0  0  0  1  0  0  0  0  0  0  0  0
   -1.5630   -0.2455    0.0664 C   0  0  0  1  0  0  0  0  0  0  0  0
   -0.1604   -0.0403    0.0152 C   0  0  0  1  0  0  0  0  0  0  0  0
   -1.4460   -2.3161   -0.9480 O   0  5  0  1  0  0  0  0  0  0  0  0
   -2.9874   -2.0670    0.7365 O   0  0  0  1  0  0  0  0  0  0  0  0
   -3.7603    0.5969    0.2034 O   0  0  0  1  0  0  0  0  0  0  0  0
    2.9143   -1.9853   -0.2775 O   0  0  0  1  0  0  0  0  0  0  0  0
   -4.1842    1.0512   -0.5284 H   0  0  0  1  0  0  0  0  0  0  0  0
   -2.5764    2.9308    0.2726 H   0  0  0  1  0  0  0  0  0  0  0  0
   -0.2180    3.3396    0.1784 H   0  0  0  1  0  0  0  0  0  0  0  0
    3.6242    0.5179   -0.1937 H   0  0  0  1  0  0  0  0  0  0  0  0
    0.3557   -2.1117   -0.0999 H   0  0  0  1  0  0  0  0  0  0  0  0
    3.1856   -2.2711    0.5978 H   0  0  0  1  0  0  0  0  0  0  0  0
    2.6580    3.1170    0.9847 H   0  0  0  1  0  0  0  0  0  0  0  0
    1.6310    3.5732   -0.3531 H   0  0  0  1  0  0  0  0  0  0  0  0
    3.2184    2.9083   -0.6569 H   0  0  0  1  0  0  0  0  0  0  0  0
  1  4  1  0  0  0  0
  1  8  2  0  0  0  0
  1 12  1  0  0  0  0
  2  8  1  0  0  0  0
  2 23  1  0  0  0  0
  2 24  1  0  0  0  0
  2 25  1  0  0  0  0
  3  4  2  0  0  0  0
  3 10  1  0  0  0  0
  3 18  1  0  0  0  0
  4 19  1  0  0  0  0
  5  8  1  0  0  0  0
  5  9  2  0  0  0  0
  5 20  1  0  0  0  0
  6  9  1  0  0  0  0
  6 12  2  0  0  0  0
  6 21  1  0  0  0  0
  7 11  1  0  0  0  0
  7 13  1  0  0  0  0
  7 14  2  0  0  0  0
  9 16  1  0  0  0  0
 10 11  2  0  0  0  0
 10 15  1  0  0  0  0
 11 12  1  0  0  0  0
 15 17  1  0  0  0  0
 16 22  1  0  0  0  0
M  END
> <ConfClashScore>
0 

> <ConfOneFourInteractionScore>
0 

> <ConfScore>
1.32178 

> <ConfScorePBest>
0.265648 

> <ConfTolerance>
0.25 

$$$$
7NA.****
  PyMOL2.4          3D                             0

 25 26  0  0  0  0  0  0  0  0999 V2000
    0.3798    1.2611    0.0055 C   0  0  0  1  0  0  0  0  0  0  0  0
    2.3325    2.8636    0.0605 C   0  0  0  1  0  0  0  0  0  0  0  0
   -1.8522    2.1504   -0.1070 C   0  0  0  1  0  0  0  0  0  0  0  0
   -0.5092    2.3492   -0.0529 C   0  0  0  1  0  0  0  0  0  0  0  0
    2.6070    0.3917    0.1161 C   0  0  0  1  0  0  0  0  0  0  0  0
    0.7481   -1.1438    0.0657 C   0  0  0  1  0  0  0  0  0  0  0  0
   -2.1596   -1.6201   -0.0510 C   0  0  0  1  0  0  0  0  0  0  0  0
    1.7698    1.4618    0.0613 C   0  0  0  1  0  0  0  0  0  0  0  0
    2.1061   -0.9130    0.1202 C   0  0  0  1  0  0  0  0  0  0  0  0
   -2.4060    0.8696   -0.1058 C   0  0  0  1  0  0  0  0  0  0  0  0
   -1.5809   -0.2565   -0.0506 C   0  0  0  1  0  0  0  0  0  0  0  0
   -0.1320   -0.0588    0.0077 C   0  0  0  1  0  0  0  0  0  0  0  0
   -3.3188   -1.7684   -0.7468 O   0  5  0  1  0  0  0  0  0  0  0  0
   -1.6224   -2.5434    0.5383 O   0  0  0  1  0  0  0  0  0  0  0  0
   -3.7517    0.7172   -0.1584 O   0  0  0  1  0  0  0  0  0  0  0  0
    2.9633   -1.9611    0.1784 O   0  0  0  1  0  0  0  0  0  0  0  0
   -4.1026    0.6583    0.7332 H   0  0  0  1  0  0  0  0  0  0  0  0
   -2.4844    2.9750   -0.1505 H   0  0  0  1  0  0  0  0  0  0  0  0
   -0.1337    3.3190   -0.0548 H   0  0  0  1  0  0  0  0  0  0  0  0
    3.6347    0.5464    0.1555 H   0  0  0  1  0  0  0  0  0  0  0  0
    0.3812   -2.1170    0.0676 H   0  0  0  1  0  0  0  0  0  0  0  0
    3.3122   -2.1388   -0.6981 H   0  0  0  1  0  0  0  0  0  0  0  0
    3.2931    2.8625   -0.4108 H   0  0  0  1  0  0  0  0  0  0  0  0
    2.4304    3.2089    1.0685 H   0  0  0  1  0  0  0  0  0  0  0  0
    1.6726    3.5122   -0.4768 H   0  0  0  1  0  0  0  0  0  0  0  0
  1  4  1  0  0  0  0
  1  8  2  0  0  0  0
  1 12  1  0  0  0  0
  2  8  1  0  0  0  0
  2 23  1  0  0  0  0
  2 24  1  0  0  0  0
  2 25  1  0  0  0  0
  3  4  2  0  0  0  0
  3 10  1  0  0  0  0
  3 18  1  0  0  0  0
  4 19  1  0  0  0  0
  5  8  1  0  0  0  0
  5  9  2  0  0  0  0
  5 20  1  0  0  0  0
  6  9  1  0  0  0  0
  6 12  2  0  0  0  0
  6 21  1  0  0  0  0
  7 11  1  0  0  0  0
  7 13  1  0  0  0  0
  7 14  2  0  0  0  0
  9 16  1  0  0  0  0
 10 11  2  0  0  0  0
 10 15  1  0  0  0  0
 11 12  1  0  0  0  0
 15 17  1  0  0  0  0
 16 22  1  0  0  0  0
M  END
> <ConfClashScore>
0 

> <ConfOneFourInteractionScore>
0 

> <ConfScore>
1.35216 

> <ConfScorePBest>
0.234352 

> <ConfTolerance>
0.25 

$$$$
7NA.****
  PyMOL2.4          3D                             0

 25 26  0  0  0  0  0  0  0  0999 V2000
    0.3888    1.2829    0.0563 C   0  0  0  1  0  0  0  0  0  0  0  0
    2.3294    2.9000    0.0056 C   0  0  0  1  0  0  0  0  0  0  0  0
   -1.8529    2.1539    0.0121 C   0  0  0  1  0  0  0  0  0  0  0  0
   -0.5104    2.3632    0.0109 C   0  0  0  1  0  0  0  0  0  0  0  0
    2.6253    0.4318    0.0984 C   0  0  0  1  0  0  0  0  0  0  0  0
    0.7780   -1.1177    0.1488 C   0  0  0  1  0  0  0  0  0  0  0  0
   -2.1284   -1.6173    0.1527 C   0  0  0  1  0  0  0  0  0  0  0  0
    1.7782    1.4946    0.0550 C   0  0  0  1  0  0  0  0  0  0  0  0
    2.1352   -0.8762    0.1469 C   0  0  0  1  0  0  0  0  0  0  0  0
   -2.3962    0.8694    0.0593 C   0  0  0  1  0  0  0  0  0  0  0  0
   -1.5607   -0.2495    0.1047 C   0  0  0  1  0  0  0  0  0  0  0  0
   -0.1122   -0.0403    0.1036 C   0  0  0  1  0  0  0  0  0  0  0  0
   -2.6608   -1.9832   -1.0440 O   0  5  0  1  0  0  0  0  0  0  0  0
   -2.1248   -2.3364    1.1383 O   0  0  0  1  0  0  0  0  0  0  0  0
   -3.7416    0.7064    0.0612 O   0  0  0  1  0  0  0  0  0  0  0  0
    3.0023   -1.9168    0.1925 O   0  0  0  1  0  0  0  0  0  0  0  0
   -4.0457    0.5420   -0.8344 H   0  0  0  1  0  0  0  0  0  0  0  0
   -2.4928    2.9730   -0.0230 H   0  0  0  1  0  0  0  0  0  0  0  0
   -0.1429    3.3355   -0.0240 H   0  0  0  1  0  0  0  0  0  0  0  0
    3.6524    0.5945    0.0955 H   0  0  0  1  0  0  0  0  0  0  0  0
    0.4191   -2.0932    0.1836 H   0  0  0  1  0  0  0  0  0  0  0  0
    2.8592   -2.4866   -0.5667 H   0  0  0  1  0  0  0  0  0  0  0  0
    2.5816    3.1495   -1.0039 H   0  0  0  1  0  0  0  0  0  0  0  0
    3.2052    2.9611    0.6172 H   0  0  0  1  0  0  0  0  0  0  0  0
    1.5919    3.5851    0.3684 H   0  0  0  1  0  0  0  0  0  0  0  0
  1  4  1  0  0  0  0
  1  8  2  0  0  0  0
  1 12  1  0  0  0  0
  2  8  1  0  0  0  0
  2 23  1  0  0  0  0
  2 24  1  0  0  0  0
  2 25  1  0  0  0  0
  3  4  2  0  0  0  0
  3 10  1  0  0  0  0
  3 18  1  0  0  0  0
  4 19  1  0  0  0  0
  5  8  1  0  0  0  0
  5  9  2  0  0  0  0
  5 20  1  0  0  0  0
  6  9  1  0  0  0  0
  6 12  2  0  0  0  0
  6 21  1  0  0  0  0
  7 11  1  0  0  0  0
  7 13  1  0  0  0  0
  7 14  2  0  0  0  0
  9 16  1  0  0  0  0
 10 11  2  0  0  0  0
 10 15  1  0  0  0  0
 11 12  1  0  0  0  0
 15 17  1  0  0  0  0
 16 22  1  0  0  0  0
M  END
> <ConfClashScore>
0 

> <ConfOneFourInteractionScore>
0 

> <ConfScore>
1.38837 

> <ConfScorePBest>
0.203055 

> <ConfTolerance>
0.25 

$$$$
