L04.****
  PyMOL2.5          3D                             0

 58 60  0  0  0  0  0  0  0  0999 V2000
   12.8348   -5.0920   -2.1157 C   0  0  0  1  0  0  0  0  0  0  0  0
   13.2697   -5.3821   -1.1821 H   0  0  0  1  0  0  0  0  0  0  0  0
   13.6760   -3.9359   -2.1482 N   0  0  0  1  0  0  0  0  0  0  0  0
   12.4860   -4.4302   -1.7476 O   0  0  0  1  0  0  0  0  0  0  0  0
   12.3231   -5.7119   -2.0701 C   0  0  0  1  0  0  0  0  0  0  0  0
   11.8882   -5.4218   -3.0037 H   0  0  0  1  0  0  0  0  0  0  0  0
   13.2708   -3.3249   -1.7696 C   0  0  0  1  0  0  0  0  0  0  0  0
   14.4426   -3.7829   -2.4577 C   0  0  0  1  0  0  0  0  0  0  0  0
   14.9679   -4.5411   -2.9381 H   0  0  0  1  0  0  0  0  0  0  0  0
   11.7542   -4.6493   -1.4747 C   0  0  0  1  0  0  0  0  0  0  0  0
   12.1891   -4.9394   -0.5411 H   0  0  0  1  0  0  0  0  0  0  0  0
   11.6522   -5.4498   -1.6761 C   0  0  0  1  0  0  0  0  0  0  0  0
   12.0871   -5.7400   -0.7425 H   0  0  0  1  0  0  0  0  0  0  0  0
   12.5390   -7.0109   -2.5743 O   0  0  0  1  0  0  0  0  0  0  0  0
   12.6446   -7.6247   -1.8438 H   0  0  0  1  0  0  0  0  0  0  0  0
   13.6109   -2.5694   -1.6932 N   0  0  0  1  0  0  0  0  0  0  0  0
   13.1168   -1.8542   -1.2407 H   0  0  0  1  0  0  0  0  0  0  0  0
   12.1576   -3.5317   -1.3153 O   0  0  0  1  0  0  0  0  0  0  0  0
   14.7827   -3.0275   -2.3813 C   0  0  0  1  0  0  0  0  0  0  0  0
   15.7312   -2.8408   -2.7650 H   0  0  0  1  0  0  0  0  0  0  0  0
   10.7601   -3.7669   -0.7375 C   0  0  0  1  0  0  0  0  0  0  0  0
   10.5720   -4.2350    0.2062 H   0  0  0  1  0  0  0  0  0  0  0  0
    9.8617   -3.7611   -1.3187 H   0  0  0  1  0  0  0  0  0  0  0  0
   10.5102   -6.2237   -1.3847 O   0  0  0  1  0  0  0  0  0  0  0  0
   10.6645   -6.7348   -0.5868 H   0  0  0  1  0  0  0  0  0  0  0  0
   14.3607   -2.4216   -1.9965 C   0  0  0  1  0  0  0  0  0  0  0  0
   11.0791   -2.4202   -0.4676 O   0  0  0  1  0  0  0  0  0  0  0  0
   14.8596   -1.3139   -1.8845 O   0  0  0  1  0  0  0  0  0  0  0  0
    9.7424   -1.8892    0.3203 P   0  0  0  1  0  0  0  0  0  0  0  0
    8.4023   -1.3653    1.1073 O   0  0  0  1  0  0  0  0  0  0  0  0
   10.0136   -1.2316    1.7980 O   0  0  0  0  0  0  0  0  0  0  0  0
    9.1313   -3.2307    0.1879 O   0  0  0  1  0  0  0  0  0  0  0  0
    6.8114   -0.9672    1.0945 P   0  0  0  1  0  0  0  0  0  0  0  0
    5.2224   -0.5615    1.0827 O   0  0  0  1  0  0  0  0  0  0  0  0
    7.2041    0.6093    1.3180 O   0  0  0  0  0  0  0  0  0  0  0  0
    6.7217   -1.9015    2.2387 O   0  0  0  1  0  0  0  0  0  0  0  0
    3.8699   -0.9456    0.9767 C   0  0  0  1  0  0  0  0  0  0  0  0
    3.9133   -0.8061   -0.0833 H   0  0  0  1  0  0  0  0  0  0  0  0
    3.3390   -0.3174    1.0376 O   0  0  0  1  0  0  0  0  0  0  0  0
    3.4348   -1.6373    0.8679 C   0  0  0  1  0  0  0  0  0  0  0  0
    3.3914   -1.7768    1.9279 H   0  0  0  1  0  0  0  0  0  0  0  0
    3.8266   -2.9822    0.7070 O   0  0  0  1  0  0  0  0  0  0  0  0
    3.1833   -3.5561    1.1293 H   0  0  0  1  0  0  0  0  0  0  0  0
    2.6345   -1.4371    0.8614 C   0  0  0  1  0  0  0  0  0  0  0  0
    2.5911   -1.5765    1.9214 H   0  0  0  1  0  0  0  0  0  0  0  0
    1.6591   -2.4406    0.6894 O   0  0  0  1  0  0  0  0  0  0  0  0
    1.4693   -2.8515    1.5360 H   0  0  0  1  0  0  0  0  0  0  0  0
    1.2161    1.6206    1.2056 C   0  0  0  1  0  0  0  0  0  0  0  0
    1.7088    1.8205    2.1341 H   0  0  0  1  0  0  0  0  0  0  0  0
    1.7797    2.0483    0.4029 H   0  0  0  1  0  0  0  0  0  0  0  0
   -0.0182    2.3012    1.2445 O   0  0  0  1  0  0  0  0  0  0  0  0
   -0.4328    2.1643    2.0995 H   0  0  0  1  0  0  0  0  0  0  0  0
    1.2452    0.1137    1.0085 C   0  0  0  1  0  0  0  0  0  0  0  0
    1.2886    0.2532   -0.0515 H   0  0  0  1  0  0  0  0  0  0  0  0
    0.0393   -0.6027    0.8648 O   0  0  0  1  0  0  0  0  0  0  0  0
   -0.2333   -0.9459    1.7190 H   0  0  0  1  0  0  0  0  0  0  0  0
    2.5749   -0.6215    0.9663 C   0  0  0  1  0  0  0  0  0  0  0  0
    2.5314   -0.7610    2.0263 H   0  0  0  1  0  0  0  0  0  0  0  0
  1  2  1  0  0  0  0
  1  3  1  0  0  0  0
  1  4  1  0  0  0  0
  1  5  1  0  0  0  0
  3  7  1  0  0  0  0
  3  8  1  0  0  0  0
  4 10  1  0  0  0  0
  5  6  1  0  0  0  0
  5 12  1  0  0  0  0
  5 14  1  0  0  0  0
  7 16  1  0  0  0  0
  7 18  2  0  0  0  0
  8  9  1  0  0  0  0
  8 19  2  0  0  0  0
 10 11  1  0  0  0  0
 10 12  1  0  0  0  0
 10 21  1  0  0  0  0
 12 13  1  0  0  0  0
 12 24  1  0  0  0  0
 14 15  1  0  0  0  0
 16 17  1  0  0  0  0
 16 26  1  0  0  0  0
 19 20  1  0  0  0  0
 19 26  1  0  0  0  0
 21 22  1  0  0  0  0
 21 23  1  0  0  0  0
 21 27  1  0  0  0  0
 24 25  1  0  0  0  0
 26 28  2  0  0  0  0
 27 29  1  0  0  0  0
 29 30  1  0  0  0  0
 29 31  1  0  0  0  0
 29 32  2  0  0  0  0
 30 33  1  0  0  0  0
 33 34  1  0  0  0  0
 33 35  1  0  0  0  0
 33 36  2  0  0  0  0
 34 37  1  0  0  0  0
 37 38  1  0  0  0  0
 37 39  1  0  0  0  0
 37 40  1  0  0  0  0
 39 57  1  0  0  0  0
 40 41  1  0  0  0  0
 40 42  1  0  0  0  0
 40 44  1  0  0  0  0
 42 43  1  0  0  0  0
 44 45  1  0  0  0  0
 44 46  1  0  0  0  0
 44 57  1  0  0  0  0
 46 47  1  0  0  0  0
 48 49  1  0  0  0  0
 48 50  1  0  0  0  0
 48 51  1  0  0  0  0
 48 53  1  0  0  0  0
 51 52  1  0  0  0  0
 53 54  1  0  0  0  0
 53 55  1  0  0  0  0
 53 57  1  0  0  0  0
 55 56  1  0  0  0  0
 57 58  1  0  0  0  0
M  BCL ATM C_TeTeTeTe H_S N_TrTrTrPi2 O_Te2Te2TeTe C_TeTeTeTe H_S C_TrTrTrPi C_TrTrTrPi H_S C_TeTeTeTe H_S C_TeTeTeTe H_S O_Te2Te2TeTe H_S N_TrTrTrPi2 H_S O_Tr2Tr2TrPi C_TrTrTrPi H_S C_TeTeTeTe H_S H_S O_Te2Te2TeTe H_S C_TrTrTrPi O_Tr2TrTrPi2 O_Tr2Tr2TrPi P_TeTeTeTePi O_Tr2TrTrPi2 O_Te2Te2TeTe O_Tr2Tr2TrPi P_TeTeTeTePi O_Tr2TrTrPi2 O_Te2Te2TeTe O_Tr2Tr2TrPi C_TeTeTeTe H_S O_Te2Te2TeTe C_TeTeTeTe H_S O_Te2Te2TeTe H_S C_TeTeTeTe H_S O_Te2Te2TeTe H_S C_TeTeTeTe H_S H_S O_Te2Te2TeTe H_S C_TeTeTeTe H_S O_Te2Te2TeTe H_S C_TeTeTeTe H_S
M  BCL BND NonConjugatedSingleBond NonConjugatedSingleBond NonConjugatedSingleBondInRing NonConjugatedSingleBondInRing ConjugatedSingleBondInRing ConjugatedSingleBondInRing NonConjugatedSingleBondInRing NonConjugatedSingleBond NonConjugatedSingleBondInRing NonConjugatedSingleBond ConjugatedSingleBondInRing ConjugatedDoubleBond NonConjugatedSingleBond ConjugatedDoubleBondInRing NonConjugatedSingleBond NonConjugatedSingleBondInRing NonConjugatedSingleBond NonConjugatedSingleBond NonConjugatedSingleBond NonConjugatedSingleBond NonConjugatedSingleBond ConjugatedSingleBondInRing NonConjugatedSingleBond ConjugatedSingleBondInRing NonConjugatedSingleBond NonConjugatedSingleBond NonConjugatedSingleBond NonConjugatedSingleBond ConjugatedDoubleBond ConjugatedSingleBond ConjugatedSingleBond ConjugatedSingleBond ConjugatedDoubleBond ConjugatedSingleBond ConjugatedSingleBond ConjugatedSingleBond ConjugatedDoubleBond NonConjugatedSingleBond NonConjugatedSingleBond NonConjugatedSingleBondInRing NonConjugatedSingleBondInRing NonConjugatedSingleBondInRing NonConjugatedSingleBond NonConjugatedSingleBond NonConjugatedSingleBondInRing NonConjugatedSingleBond NonConjugatedSingleBond NonConjugatedSingleBond NonConjugatedSingleBondInRing NonConjugatedSingleBond NonConjugatedSingleBond NonConjugatedSingleBond NonConjugatedSingleBond NonConjugatedSingleBond NonConjugatedSingleBond NonConjugatedSingleBond NonConjugatedSingleBond NonConjugatedSingleBond NonConjugatedSingleBond NonConjugatedSingleBond
M  BCL CHI   1   R   5   S  10   S  12   S  29   R  33   S  37   C  40   C  44   C  53   C  57   C
M  BCL DBI - Z - - -
M  END
> <ConfScore>
1 

> <ConfScorePBest>
1 

> <ConfTolerance>
0.25 

$$$$
