ChEBI.****
  PyMOL2.5          3D                             0

 27 27  0  0  0  0  0  0  0  0999 V2000
   11.9113   -7.0802    0.0715 C   0  0  0  1  0  0  0  0  0  0  0  0
   11.8450   -6.8930   -0.9799 H   0  0  0  1  0  0  0  0  0  0  0  0
   11.2809   -6.6842    0.1818 O   0  0  0  1  0  0  0  0  0  0  0  0
   11.8727   -7.8161   -0.0571 C   0  0  0  1  0  0  0  0  0  0  0  0
   12.0885   -7.8138   -1.1051 H   0  0  0  1  0  0  0  0  0  0  0  0
   13.1648   -6.4355    0.1072 O   0  0  0  1  0  0  0  0  0  0  0  0
   10.6116   -7.0279    0.1629 C   0  0  0  1  0  0  0  0  0  0  0  0
   10.1567   -6.8599    1.1167 H   0  0  0  1  0  0  0  0  0  0  0  0
   11.2031   -8.1637   -0.0767 C   0  0  0  1  0  0  0  0  0  0  0  0
   11.1233   -8.2981   -1.1353 H   0  0  0  1  0  0  0  0  0  0  0  0
   13.0400   -8.5213    0.3009 O   0  0  0  1  0  0  0  0  0  0  0  0
   13.8126   -8.0277    0.0160 H   0  0  0  1  0  0  0  0  0  0  0  0
   14.2638   -7.0049   -0.9687 P   0  0  0  1  0  0  0  0  0  0  0  0
   10.5729   -7.7637    0.0343 C   0  0  0  1  0  0  0  0  0  0  0  0
   10.2997   -8.1115    1.0086 H   0  0  0  1  0  0  0  0  0  0  0  0
    9.6829   -6.1616   -0.6723 C   0  0  0  1  0  0  0  0  0  0  0  0
   10.2429   -5.7757   -1.4984 H   0  0  0  1  0  0  0  0  0  0  0  0
    9.3453   -5.3515   -0.0602 H   0  0  0  1  0  0  0  0  0  0  0  0
   11.1771   -9.5430    0.2147 O   0  0  0  1  0  0  0  0  0  0  0  0
   11.7123   -9.7164    0.9926 H   0  0  0  1  0  0  0  0  0  0  0  0
   15.2555   -7.5187   -1.9398 O   0  0  0  1  0  0  0  0  0  0  0  0
   15.0027   -5.5632   -0.9772 O   0  5  0  1  0  0  0  0  0  0  0  0
   14.8834   -7.6989    0.3575 O   0  5  0  1  0  0  0  0  0  0  0  0
    9.4574   -8.3223   -0.6228 O   0  0  0  1  0  0  0  0  0  0  0  0
    9.2066   -9.1410   -0.1886 H   0  0  0  1  0  0  0  0  0  0  0  0
    8.5487   -6.8244   -1.1845 O   0  0  0  1  0  0  0  0  0  0  0  0
    8.4213   -7.6515   -0.7142 H   0  0  0  1  0  0  0  0  0  0  0  0
  1  2  1  0  0  0  0
  1  3  1  0  0  0  0
  1  4  1  0  0  0  0
  1  6  1  0  0  0  0
  3  7  1  0  0  0  0
  4  5  1  0  0  0  0
  4  9  1  0  0  0  0
  4 11  1  0  0  0  0
  6 13  1  0  0  0  0
  7  8  1  0  0  0  0
  7 14  1  0  0  0  0
  7 16  1  0  0  0  0
  9 10  1  0  0  0  0
  9 14  1  0  0  0  0
  9 19  1  0  0  0  0
 11 12  1  0  0  0  0
 13 21  2  0  0  0  0
 13 22  1  0  0  0  0
 13 23  1  0  0  0  0
 14 15  1  0  0  0  0
 14 24  1  0  0  0  0
 16 17  1  0  0  0  0
 16 18  1  0  0  0  0
 16 26  1  0  0  0  0
 19 20  1  0  0  0  0
 24 25  1  0  0  0  0
 26 27  1  0  0  0  0
M  END
> <ConfScore>
1 

> <ConfScorePBest>
1 

> <ConfTolerance>
0.25 

$$$$
