PPI.****
  PyMOL2.4          3D                             0

 10  9  0  0  0  0  0  0  0  0999 V2000
    0.0294   -0.2279   -0.4852 C   0  0  0  1  0  0  0  0  0  0  0  0
    0.7221    0.3085    0.7430 C   0  0  0  1  0  0  0  0  0  0  0  0
    0.7816    1.3747    0.6747 H   0  0  0  1  0  0  0  0  0  0  0  0
    1.7090   -0.1016    0.7963 H   0  0  0  1  0  0  0  0  0  0  0  0
   -0.0429   -0.0685    2.0011 C   0  0  0  1  0  0  0  0  0  0  0  0
    0.3317    0.4958    2.8295 H   0  0  0  1  0  0  0  0  0  0  0  0
    0.0833   -1.1131    2.1954 H   0  0  0  1  0  0  0  0  0  0  0  0
   -1.0821    0.1464    1.8642 H   0  0  0  1  0  0  0  0  0  0  0  0
    0.5767    0.1027   -1.6856 O   0  5  0  1  0  0  0  0  0  0  0  0
   -0.9667   -0.9170   -0.3395 O   0  0  0  1  0  0  0  0  0  0  0  0
  1  2  1  0  0  0  0
  1  9  1  0  0  0  0
  1 10  2  0  0  0  0
  2  3  1  0  0  0  0
  2  4  1  0  0  0  0
  2  5  1  0  0  0  0
  5  6  1  0  0  0  0
  5  7  1  0  0  0  0
  5  8  1  0  0  0  0
M  END
> <ConfClashScore>
0 

> <ConfOneFourInteractionScore>
0 

> <ConfScore>
-0.623866 

> <ConfScorePBest>
0.296945 

> <ConfTolerance>
0.25 

$$$$
PPI.****
  PyMOL2.4          3D                             0

 10  9  0  0  0  0  0  0  0  0999 V2000
    0.0720    0.2418   -0.5180 C   0  0  0  1  0  0  0  0  0  0  0  0
    0.5968   -0.3885    0.7427 C   0  0  0  1  0  0  0  0  0  0  0  0
    1.6580   -0.2530    0.7625 H   0  0  0  1  0  0  0  0  0  0  0  0
    0.3707   -1.4337    0.7080 H   0  0  0  1  0  0  0  0  0  0  0  0
    0.0284    0.1715    2.0364 C   0  0  0  1  0  0  0  0  0  0  0  0
   -0.9864   -0.1486    2.1488 H   0  0  0  1  0  0  0  0  0  0  0  0
    0.0639    1.2405    2.0081 H   0  0  0  1  0  0  0  0  0  0  0  0
    0.6076   -0.1833    2.8632 H   0  0  0  1  0  0  0  0  0  0  0  0
   -0.0810   -0.6737   -1.5120 O   0  5  0  1  0  0  0  0  0  0  0  0
   -0.1880    1.4269   -0.6456 O   0  0  0  1  0  0  0  0  0  0  0  0
  1  2  1  0  0  0  0
  1  9  1  0  0  0  0
  1 10  2  0  0  0  0
  2  3  1  0  0  0  0
  2  4  1  0  0  0  0
  2  5  1  0  0  0  0
  5  6  1  0  0  0  0
  5  7  1  0  0  0  0
  5  8  1  0  0  0  0
M  END
> <ConfClashScore>
0 

> <ConfOneFourInteractionScore>
0 

> <ConfScore>
-0.195753 

> <ConfScorePBest>
0.265648 

> <ConfTolerance>
0.25 

$$$$
PPI.****
  PyMOL2.4          3D                             0

 10  9  0  0  0  0  0  0  0  0999 V2000
   -0.0200    0.0035   -0.5106 C   0  0  0  1  0  0  0  0  0  0  0  0
    0.7789    0.0952    0.7620 C   0  0  0  1  0  0  0  0  0  0  0  0
    1.2202    1.0683    0.8177 H   0  0  0  1  0  0  0  0  0  0  0  0
    1.5504   -0.6458    0.7339 H   0  0  0  1  0  0  0  0  0  0  0  0
   -0.0606   -0.1275    2.0094 C   0  0  0  1  0  0  0  0  0  0  0  0
   -0.8549    0.5889    2.0379 H   0  0  0  1  0  0  0  0  0  0  0  0
    0.5540   -0.0130    2.8777 H   0  0  0  1  0  0  0  0  0  0  0  0
   -0.4719   -1.1151    1.9906 H   0  0  0  1  0  0  0  0  0  0  0  0
    0.3014    0.9995   -1.3790 O   0  5  0  1  0  0  0  0  0  0  0  0
   -0.8555   -0.8539   -0.7456 O   0  0  0  1  0  0  0  0  0  0  0  0
  1  2  1  0  0  0  0
  1  9  1  0  0  0  0
  1 10  2  0  0  0  0
  2  3  1  0  0  0  0
  2  4  1  0  0  0  0
  2  5  1  0  0  0  0
  5  6  1  0  0  0  0
  5  7  1  0  0  0  0
  5  8  1  0  0  0  0
M  END
> <ConfClashScore>
0 

> <ConfOneFourInteractionScore>
0 

> <ConfScore>
-0.194388 

> <ConfScorePBest>
0.234352 

> <ConfTolerance>
0.25 

$$$$
PPI.****
  PyMOL2.4          3D                             0

 10  9  0  0  0  0  0  0  0  0999 V2000
   -0.0072   -0.0106   -0.5142 C   0  0  0  1  0  0  0  0  0  0  0  0
    0.7822    0.1640    0.7556 C   0  0  0  1  0  0  0  0  0  0  0  0
    1.1215    1.1774    0.8090 H   0  0  0  1  0  0  0  0  0  0  0  0
    1.6254   -0.4939    0.7256 H   0  0  0  1  0  0  0  0  0  0  0  0
   -0.0261   -0.1421    2.0060 C   0  0  0  1  0  0  0  0  0  0  0  0
   -0.7240    0.6494    2.1828 H   0  0  0  1  0  0  0  0  0  0  0  0
    0.6334   -0.2297    2.8440 H   0  0  0  1  0  0  0  0  0  0  0  0
   -0.5565   -1.0616    1.8712 H   0  0  0  1  0  0  0  0  0  0  0  0
   -0.6776    1.0525   -1.0340 O   0  5  0  1  0  0  0  0  0  0  0  0
   -0.0291   -1.1054   -1.0520 O   0  0  0  1  0  0  0  0  0  0  0  0
  1  2  1  0  0  0  0
  1  9  1  0  0  0  0
  1 10  2  0  0  0  0
  2  3  1  0  0  0  0
  2  4  1  0  0  0  0
  2  5  1  0  0  0  0
  5  6  1  0  0  0  0
  5  7  1  0  0  0  0
  5  8  1  0  0  0  0
M  END
> <ConfClashScore>
0 

> <ConfOneFourInteractionScore>
0 

> <ConfScore>
0.0187299 

> <ConfScorePBest>
0.203055 

> <ConfTolerance>
0.25 

$$$$
